<configuration>
    <input>
		<net-file value="circles.net.xml"/>
		<route-files value="circles.rou.xml"/>
    </input>
    <time>
        <begin value="0"/>
        <end value="10000"/>
        <step-length value="0.1"/>
    </time>
</configuration>
